
OS:Version,
  {af56e9b0-e624-41d7-b837-ce4b1451070e}, !- Handle
  3.5.0;                                  !- Version Identifier

OS:AirConditioner:VariableRefrigerantFlow,
  {d3b0704b-08fe-4dd8-b990-574db682988a}, !- Handle
  VRF Air Conditioner,                    !- Name
  {01575e3b-f52a-4a41-925f-b9af7e86b41c}, !- Availability Schedule
  105480,                                 !- Gross Rated Total Cooling Capacity {W}
  3.15,                                   !- Gross Rated Cooling COP {W/W}
  -5,                                     !- Minimum Outdoor Temperature in Cooling Mode {C}
  43,                                     !- Maximum Outdoor Temperature in Cooling Mode {C}
  {16e86ad5-c9e5-4322-9ff4-ea740e2f025e}, !- Cooling Capacity Ratio Modifier Function of Low Temperature Curve Name
  {ef292a6d-233c-43ea-b9c7-8b10ed4b2d15}, !- Cooling Capacity Ratio Boundary Curve Name
  {f68af7bc-0141-40ab-9f3c-e5573733d1cb}, !- Cooling Capacity Ratio Modifier Function of High Temperature Curve Name
  {a3f34b61-0073-4391-b510-c0b81be23e45}, !- Cooling Energy Input Ratio Modifier Function of Low Temperature Curve Name
  {12e6bf6c-be96-4b7b-874e-697534b73624}, !- Cooling Energy Input Ratio Boundary Curve Name
  {abb03760-4805-4cb6-b574-85c6bb5933f6}, !- Cooling Energy Input Ratio Modifier Function of High Temperature Curve Name
  {425dfb08-2248-43c0-8d00-3213b6456230}, !- Cooling Energy Input Ratio Modifier Function of Low Part-Load Ratio Curve Name
  {a9609c8a-b1b0-4bb4-a39c-8b004e617cf0}, !- Cooling Energy Input Ratio Modifier Function of High Part-Load Ratio Curve Name
  {bff93df4-84e2-4869-83fa-e18697501ff8}, !- Cooling Combination Ratio Correction Factor Curve Name
  {25767801-3730-4499-84fa-7693964c0163}, !- Cooling Part-Load Fraction Correlation Curve Name
  118665,                                 !- Gross Rated Heating Capacity {W}
  1,                                      !- Rated Heating Capacity Sizing Ratio {W/W}
  3.4,                                    !- Rated Heating COP {W/W}
  -20,                                    !- Minimum Outdoor Temperature in Heating Mode {C}
  30,                                     !- Maximum Outdoor Temperature in Heating Mode {C}
  {97336d53-a584-4eec-9595-87f129c7bd84}, !- Heating Capacity Ratio Modifier Function of Low Temperature Curve Name
  {b8ca32f8-0798-4873-9256-b949e5e870cb}, !- Heating Capacity Ratio Boundary Curve Name
  {158847c5-d8b6-4e79-a203-3181450cde13}, !- Heating Capacity Ratio Modifier Function of High Temperature Curve Name
  {29697520-6bea-4927-8510-67130a9092ef}, !- Heating Energy Input Ratio Modifier Function of Low Temperature Curve Name
  {7587ce2a-1347-448c-9e20-24ffedf0f478}, !- Heating Energy Input Ratio Boundary Curve Name
  {e4bf9bd7-a6a6-4685-8964-57c8cc6a9329}, !- Heating Energy Input Ratio Modifier Function of High Temperature Curve Name
  WetBulbTemperature,                     !- Heating Performance Curve Outdoor Temperature Type
  {61d1093c-2422-4904-b796-d9b8ed60dc72}, !- Heating Energy Input Ratio Modifier Function of Low Part-Load Ratio Curve Name
  {a68c66b0-91c2-45e8-89ec-f613ee5ecbb0}, !- Heating Energy Input Ratio Modifier Function of High Part-Load Ratio Curve Name
  {76f0c6b3-8447-4536-9f70-a500d5f42ff3}, !- Heating Combination Ratio Correction Factor Curve Name
  {42f19ed1-dc2e-4e43-81c6-9873d077e0e2}, !- Heating Part-Load Fraction Correlation Curve Name
  0.25,                                   !- Minimum Heat Pump Part-Load Ratio {dimensionless}
  ,                                       !- Zone Name for Master Thermostat Location
  LoadPriority,                           !- Master Thermostat Priority Control Type
  ,                                       !- Thermostat Priority Schedule
  {71ce4e96-4033-47fa-b9be-a8f1f7d2abfb}, !- Zone Terminal Unit List
  No,                                     !- Heat Pump Waste Heat Recovery
  30,                                     !- Equivalent Piping Length used for Piping Correction Factor in Cooling Mode {m}
  10,                                     !- Vertical Height used for Piping Correction Factor {m}
  {e5f76700-6987-4670-8ac1-21f2de2845ed}, !- Piping Correction Factor for Length in Cooling Mode Curve Name
  -0.000386,                              !- Piping Correction Factor for Height in Cooling Mode Coefficient {1/m}
  30,                                     !- Equivalent Piping Length used for Piping Correction Factor in Heating Mode {m}
  ,                                       !- Piping Correction Factor for Length in Heating Mode Curve Name
  0,                                      !- Piping Correction Factor for Height in Heating Mode Coefficient {1/m}
  15,                                     !- Crankcase Heater Power per Compressor {W}
  3,                                      !- Number of Compressors {dimensionless}
  0.33,                                   !- Ratio of Compressor Size to Total Compressor Capacity {W/W}
  7,                                      !- Maximum Outdoor Dry-bulb Temperature for Crankcase Heater {C}
  Resistive,                              !- Defrost Strategy
  Timed,                                  !- Defrost Control
  ,                                       !- Defrost Energy Input Ratio Modifier Function of Temperature Curve Name
  0.058333,                               !- Defrost Time Period Fraction {dimensionless}
  1e-07,                                  !- Resistive Defrost Heater Capacity {W}
  7,                                      !- Maximum Outdoor Dry-bulb Temperature for Defrost Operation {C}
  ,                                       !- Condenser Type
  ,                                       !- Condenser Inlet Node
  ,                                       !- Condenser Outlet Node
  autosize,                               !- Water Condenser Volume Flow Rate {m3/s}
  0.9,                                    !- Evaporative Condenser Effectiveness {dimensionless}
  autosize,                               !- Evaporative Condenser Air Flow Rate {m3/s}
  autosize,                               !- Evaporative Condenser Pump Rated Power Consumption {W}
  ,                                       !- Supply Water Storage Tank
  0,                                      !- Basin Heater Capacity {W/K}
  2,                                      !- Basin Heater Setpoint Temperature {C}
  ,                                       !- Basin Heater Operating Schedule
  Electricity,                            !- Fuel Type
  0,                                      !- Minimum Outdoor Temperature in Heat Recovery Mode {C}
  20,                                     !- Maximum Outdoor Temperature in Heat Recovery Mode {C}
  ,                                       !- Heat Recovery Cooling Capacity Modifier Curve Name
  0.5,                                    !- Initial Heat Recovery Cooling Capacity Fraction {W/W}
  0.083,                                  !- Heat Recovery Cooling Capacity Time Constant {hr}
  ,                                       !- Heat Recovery Cooling Energy Modifier Curve Name
  1,                                      !- Initial Heat Recovery Cooling Energy Fraction {W/W}
  0,                                      !- Heat Recovery Cooling Energy Time Constant {hr}
  ,                                       !- Heat Recovery Heating Capacity Modifier Curve Name
  0.5,                                    !- Initial Heat Recovery Heating Capacity Fraction {W/W}
  0.083,                                  !- Heat Recovery Heating Capacity Time Constant {hr}
  ,                                       !- Heat Recovery Heating Energy Modifier Curve Name
  0.5,                                    !- Initial Heat Recovery Heating Energy Fraction {W/W}
  0;                                      !- Heat Recovery Heating Energy Time Constant {hr}

OS:Schedule:Constant,
  {01575e3b-f52a-4a41-925f-b9af7e86b41c}, !- Handle
  Always On Discrete,                     !- Name
  {70ccb25c-8e06-471a-b0c0-96f142868f58}, !- Schedule Type Limits Name
  1;                                      !- Value

OS:ScheduleTypeLimits,
  {70ccb25c-8e06-471a-b0c0-96f142868f58}, !- Handle
  OnOff,                                  !- Name
  0,                                      !- Lower Limit Value
  1,                                      !- Upper Limit Value
  Discrete,                               !- Numeric Type
  Availability;                           !- Unit Type

OS:ModelObjectList,
  {71ce4e96-4033-47fa-b9be-a8f1f7d2abfb}, !- Handle
  Model Object List 1;                    !- Name

OS:Table:Lookup,
  {16e86ad5-c9e5-4322-9ff4-ea740e2f025e}, !- Handle
  Table Multi Variable Lookup 5,          !- Name
  {6020df6d-ad6a-4143-a4cb-906cbef08202}, !- Independent Variable List Name
  DivisorOnly,                            !- Normalization Method
  1,                                      !- Normalization Divisor
  0.540277777777778,                      !- Minimum Output {BasedOnField A5}
  1.05805555555556,                       !- Maximum Output {BasedOnField A5}
  Dimensionless,                          !- Output Unit Type
  ,                                       !- External File Name
  ,                                       !- External File Column Number
  ,                                       !- External File Starting Row Number
  0.540277777777778,                      !- Output Value 1 {BasedOnField A5}
  0.540277777777778,                      !- Output Value 2 {BasedOnField A5}
  0.540277777777778,                      !- Output Value 3 {BasedOnField A5}
  0.540277777777778,                      !- Output Value 4 {BasedOnField A5}
  0.540277777777778,                      !- Output Value 5 {BasedOnField A5}
  0.540277777777778,                      !- Output Value 6 {BasedOnField A5}
  0.540277777777778,                      !- Output Value 7 {BasedOnField A5}
  0.540277777777778,                      !- Output Value 8 {BasedOnField A5}
  0.540277777777778,                      !- Output Value 9 {BasedOnField A5}
  0.540277777777778,                      !- Output Value 10 {BasedOnField A5}
  0.540277777777778,                      !- Output Value 11 {BasedOnField A5}
  0.540277777777778,                      !- Output Value 12 {BasedOnField A5}
  0.540277777777778,                      !- Output Value 13 {BasedOnField A5}
  0.540277777777778,                      !- Output Value 14 {BasedOnField A5}
  0.540277777777778,                      !- Output Value 15 {BasedOnField A5}
  0.540277777777778,                      !- Output Value 16 {BasedOnField A5}
  0.540277777777778,                      !- Output Value 17 {BasedOnField A5}
  0.540277777777778,                      !- Output Value 18 {BasedOnField A5}
  0.540277777777778,                      !- Output Value 19 {BasedOnField A5}
  0.540277777777778,                      !- Output Value 20 {BasedOnField A5}
  0.540277777777778,                      !- Output Value 21 {BasedOnField A5}
  0.642777777777778,                      !- Output Value 22 {BasedOnField A5}
  0.642777777777778,                      !- Output Value 23 {BasedOnField A5}
  0.642777777777778,                      !- Output Value 24 {BasedOnField A5}
  0.642777777777778,                      !- Output Value 25 {BasedOnField A5}
  0.642777777777778,                      !- Output Value 26 {BasedOnField A5}
  0.642777777777778,                      !- Output Value 27 {BasedOnField A5}
  0.642777777777778,                      !- Output Value 28 {BasedOnField A5}
  0.642777777777778,                      !- Output Value 29 {BasedOnField A5}
  0.642777777777778,                      !- Output Value 30 {BasedOnField A5}
  0.642777777777778,                      !- Output Value 31 {BasedOnField A5}
  0.642777777777778,                      !- Output Value 32 {BasedOnField A5}
  0.642777777777778,                      !- Output Value 33 {BasedOnField A5}
  0.642777777777778,                      !- Output Value 34 {BasedOnField A5}
  0.642777777777778,                      !- Output Value 35 {BasedOnField A5}
  0.642777777777778,                      !- Output Value 36 {BasedOnField A5}
  0.642777777777778,                      !- Output Value 37 {BasedOnField A5}
  0.642777777777778,                      !- Output Value 38 {BasedOnField A5}
  0.642777777777778,                      !- Output Value 39 {BasedOnField A5}
  0.642777777777778,                      !- Output Value 40 {BasedOnField A5}
  0.642777777777778,                      !- Output Value 41 {BasedOnField A5}
  0.567222222222222,                      !- Output Value 42 {BasedOnField A5}
  0.75,                                   !- Output Value 43 {BasedOnField A5}
  0.75,                                   !- Output Value 44 {BasedOnField A5}
  0.75,                                   !- Output Value 45 {BasedOnField A5}
  0.75,                                   !- Output Value 46 {BasedOnField A5}
  0.75,                                   !- Output Value 47 {BasedOnField A5}
  0.75,                                   !- Output Value 48 {BasedOnField A5}
  0.75,                                   !- Output Value 49 {BasedOnField A5}
  0.75,                                   !- Output Value 50 {BasedOnField A5}
  0.75,                                   !- Output Value 51 {BasedOnField A5}
  0.75,                                   !- Output Value 52 {BasedOnField A5}
  0.75,                                   !- Output Value 53 {BasedOnField A5}
  0.75,                                   !- Output Value 54 {BasedOnField A5}
  0.75,                                   !- Output Value 55 {BasedOnField A5}
  0.75,                                   !- Output Value 56 {BasedOnField A5}
  0.75,                                   !- Output Value 57 {BasedOnField A5}
  0.75,                                   !- Output Value 58 {BasedOnField A5}
  0.75,                                   !- Output Value 59 {BasedOnField A5}
  0.75,                                   !- Output Value 60 {BasedOnField A5}
  0.75,                                   !- Output Value 61 {BasedOnField A5}
  0.688055555555555,                      !- Output Value 62 {BasedOnField A5}
  0.548333333333333,                      !- Output Value 63 {BasedOnField A5}
  0.799166666666667,                      !- Output Value 64 {BasedOnField A5}
  0.799166666666667,                      !- Output Value 65 {BasedOnField A5}
  0.799166666666667,                      !- Output Value 66 {BasedOnField A5}
  0.799166666666667,                      !- Output Value 67 {BasedOnField A5}
  0.799166666666667,                      !- Output Value 68 {BasedOnField A5}
  0.799166666666667,                      !- Output Value 69 {BasedOnField A5}
  0.799166666666667,                      !- Output Value 70 {BasedOnField A5}
  0.799166666666667,                      !- Output Value 71 {BasedOnField A5}
  0.799166666666667,                      !- Output Value 72 {BasedOnField A5}
  0.799166666666667,                      !- Output Value 73 {BasedOnField A5}
  0.799166666666667,                      !- Output Value 74 {BasedOnField A5}
  0.799166666666667,                      !- Output Value 75 {BasedOnField A5}
  0.799166666666667,                      !- Output Value 76 {BasedOnField A5}
  0.799166666666667,                      !- Output Value 77 {BasedOnField A5}
  0.799166666666667,                      !- Output Value 78 {BasedOnField A5}
  0.799166666666667,                      !- Output Value 79 {BasedOnField A5}
  0.799166666666667,                      !- Output Value 80 {BasedOnField A5}
  0.799166666666667,                      !- Output Value 81 {BasedOnField A5}
  0.799166666666667,                      !- Output Value 82 {BasedOnField A5}
  0.701944444444444,                      !- Output Value 83 {BasedOnField A5}
  0.560833333333333,                      !- Output Value 84 {BasedOnField A5}
  0.852777777777778,                      !- Output Value 85 {BasedOnField A5}
  0.852777777777778,                      !- Output Value 86 {BasedOnField A5}
  0.852777777777778,                      !- Output Value 87 {BasedOnField A5}
  0.852777777777778,                      !- Output Value 88 {BasedOnField A5}
  0.852777777777778,                      !- Output Value 89 {BasedOnField A5}
  0.852777777777778,                      !- Output Value 90 {BasedOnField A5}
  0.852777777777778,                      !- Output Value 91 {BasedOnField A5}
  0.852777777777778,                      !- Output Value 92 {BasedOnField A5}
  0.852777777777778,                      !- Output Value 93 {BasedOnField A5}
  0.852777777777778,                      !- Output Value 94 {BasedOnField A5}
  0.852777777777778,                      !- Output Value 95 {BasedOnField A5}
  0.852777777777778,                      !- Output Value 96 {BasedOnField A5}
  0.852777777777778,                      !- Output Value 97 {BasedOnField A5}
  0.852777777777778,                      !- Output Value 98 {BasedOnField A5}
  0.852777777777778,                      !- Output Value 99 {BasedOnField A5}
  0.852777777777778,                      !- Output Value 100 {BasedOnField A5}
  0.852777777777778,                      !- Output Value 101 {BasedOnField A5}
  0.852777777777778,                      !- Output Value 102 {BasedOnField A5}
  0.799166666666667,                      !- Output Value 103 {BasedOnField A5}
  0.695833333333333,                      !- Output Value 104 {BasedOnField A5}
  0.557222222222222,                      !- Output Value 105 {BasedOnField A5}
  0.955277777777778,                      !- Output Value 106 {BasedOnField A5}
  0.955277777777778,                      !- Output Value 107 {BasedOnField A5}
  0.955277777777778,                      !- Output Value 108 {BasedOnField A5}
  0.955277777777778,                      !- Output Value 109 {BasedOnField A5}
  0.955277777777778,                      !- Output Value 110 {BasedOnField A5}
  0.955277777777778,                      !- Output Value 111 {BasedOnField A5}
  0.955277777777778,                      !- Output Value 112 {BasedOnField A5}
  0.955277777777778,                      !- Output Value 113 {BasedOnField A5}
  0.955277777777778,                      !- Output Value 114 {BasedOnField A5}
  0.955277777777778,                      !- Output Value 115 {BasedOnField A5}
  0.955277777777778,                      !- Output Value 116 {BasedOnField A5}
  0.955277777777778,                      !- Output Value 117 {BasedOnField A5}
  0.955277777777778,                      !- Output Value 118 {BasedOnField A5}
  0.955277777777778,                      !- Output Value 119 {BasedOnField A5}
  0.955277777777778,                      !- Output Value 120 {BasedOnField A5}
  0.955277777777778,                      !- Output Value 121 {BasedOnField A5}
  0.943888888888889,                      !- Output Value 122 {BasedOnField A5}
  0.910833333333333,                      !- Output Value 123 {BasedOnField A5}
  0.803888888888889,                      !- Output Value 124 {BasedOnField A5}
  0.7,                                    !- Output Value 125 {BasedOnField A5}
  0.562222222222222,                      !- Output Value 126 {BasedOnField A5}
  1.05805555555556,                       !- Output Value 127 {BasedOnField A5}
  1.05805555555556,                       !- Output Value 128 {BasedOnField A5}
  1.05805555555556,                       !- Output Value 129 {BasedOnField A5}
  1.05805555555556,                       !- Output Value 130 {BasedOnField A5}
  1.05805555555556,                       !- Output Value 131 {BasedOnField A5}
  1.05805555555556,                       !- Output Value 132 {BasedOnField A5}
  1.05805555555556,                       !- Output Value 133 {BasedOnField A5}
  1.05805555555556,                       !- Output Value 134 {BasedOnField A5}
  1.05805555555556,                       !- Output Value 135 {BasedOnField A5}
  1.05805555555556,                       !- Output Value 136 {BasedOnField A5}
  1.05805555555556,                       !- Output Value 137 {BasedOnField A5}
  1.05805555555556,                       !- Output Value 138 {BasedOnField A5}
  1.05805555555556,                       !- Output Value 139 {BasedOnField A5}
  1.04083333333333,                       !- Output Value 140 {BasedOnField A5}
  1.01833333333333,                       !- Output Value 141 {BasedOnField A5}
  0.995555555555555,                      !- Output Value 142 {BasedOnField A5}
  0.966944444444445,                      !- Output Value 143 {BasedOnField A5}
  0.915277777777778,                      !- Output Value 144 {BasedOnField A5}
  0.803888888888889,                      !- Output Value 145 {BasedOnField A5}
  0.694166666666667,                      !- Output Value 146 {BasedOnField A5}
  0.558611111111111;                      !- Output Value 147 {BasedOnField A5}

OS:ModelObjectList,
  {6020df6d-ad6a-4143-a4cb-906cbef08202}, !- Handle
  Table Multi Variable Lookup 5_IndependentVariableList, !- Name
  {48649d8e-7462-44a8-b165-f0243260d1dc}, !- Model Object 1
  {7de252d2-0269-47b0-a858-1e7fc631ca94}; !- Model Object 2

OS:Table:IndependentVariable,
  {48649d8e-7462-44a8-b165-f0243260d1dc}, !- Handle
  Table Multi Variable Lookup 5_IndependentVariable_0, !- Name
  Linear,                                 !- Interpolation Method
  Constant,                               !- Extrapolation Method
  13.9,                                   !- Minimum Value {BasedOnField A5}
  24.4,                                   !- Maximum Value {BasedOnField A5}
  ,                                       !- Normalization Reference Value {BasedOnField A5}
  Temperature,                            !- Unit Type
  ,                                       !- External File Name
  ,                                       !- External File Column Number
  ,                                       !- External File Starting Row Number
  13.9,                                   !- Value 1
  16.1,                                   !- Value 2
  17.8,                                   !- Value 3
  19.4,                                   !- Value 4
  21.1,                                   !- Value 5
  22.8,                                   !- Value 6
  24.4;                                   !- Value 7

OS:Table:IndependentVariable,
  {7de252d2-0269-47b0-a858-1e7fc631ca94}, !- Handle
  Table Multi Variable Lookup 5_IndependentVariable_1, !- Name
  Linear,                                 !- Interpolation Method
  Constant,                               !- Extrapolation Method
  -3.9,                                   !- Minimum Value {BasedOnField A5}
  50,                                     !- Maximum Value {BasedOnField A5}
  ,                                       !- Normalization Reference Value {BasedOnField A5}
  Temperature,                            !- Unit Type
  ,                                       !- External File Name
  ,                                       !- External File Column Number
  ,                                       !- External File Starting Row Number
  -3.9,                                   !- Value 1
  -1.1,                                   !- Value 2
  1.7,                                    !- Value 3
  4.4,                                    !- Value 4
  7.2,                                    !- Value 5
  10,                                     !- Value 6
  12.8,                                   !- Value 7
  15.6,                                   !- Value 8
  18.3,                                   !- Value 9
  21.1,                                   !- Value 10
  23.9,                                   !- Value 11
  26.7,                                   !- Value 12
  29.4,                                   !- Value 13
  32.2,                                   !- Value 14
  35,                                     !- Value 15
  37.8,                                   !- Value 16
  40.6,                                   !- Value 17
  43.3,                                   !- Value 18
  46.1,                                   !- Value 19
  47.8,                                   !- Value 20
  50;                                     !- Value 21

OS:Curve:Cubic,
  {ef292a6d-233c-43ea-b9c7-8b10ed4b2d15}, !- Handle
  Air Conditioner Variable Refrigerant Flow 1 VRFCoolCapFTBoundary, !- Name
  25.73,                                  !- Coefficient1 Constant
  -0.03150043,                            !- Coefficient2 x
  -0.01416595,                            !- Coefficient3 x**2
  0,                                      !- Coefficient4 x**3
  11,                                     !- Minimum Value of x
  30;                                     !- Maximum Value of x

OS:Curve:Biquadratic,
  {f68af7bc-0141-40ab-9f3c-e5573733d1cb}, !- Handle
  Air Conditioner Variable Refrigerant Flow 1 VRFCoolCapFTHi, !- Name
  0.6867358,                              !- Coefficient1 Constant
  0.0207631,                              !- Coefficient2 x
  0.0005447,                              !- Coefficient3 x**2
  -0.0016218,                             !- Coefficient4 y
  -4.259e-07,                             !- Coefficient5 y**2
  -0.0003392,                             !- Coefficient6 x*y
  15,                                     !- Minimum Value of x
  24,                                     !- Maximum Value of x
  16,                                     !- Minimum Value of y
  43;                                     !- Maximum Value of y

OS:Table:Lookup,
  {a3f34b61-0073-4391-b510-c0b81be23e45}, !- Handle
  Table Multi Variable Lookup 6,          !- Name
  {08badfc8-d524-4f4f-abac-5b60e5bc82c0}, !- Independent Variable List Name
  DivisorOnly,                            !- Normalization Method
  1,                                      !- Normalization Divisor
  0.169923208191126,                      !- Minimum Output {BasedOnField A5}
  0.73882252559727,                       !- Maximum Output {BasedOnField A5}
  Dimensionless,                          !- Output Unit Type
  ,                                       !- External File Name
  ,                                       !- External File Column Number
  ,                                       !- External File Starting Row Number
  0.169923208191126,                      !- Output Value 1 {BasedOnField A5}
  0.175,                                  !- Output Value 2 {BasedOnField A5}
  0.179778156996587,                      !- Output Value 3 {BasedOnField A5}
  0.184556313993174,                      !- Output Value 4 {BasedOnField A5}
  0.187244027303754,                      !- Output Value 5 {BasedOnField A5}
  0.189931740614334,                      !- Output Value 6 {BasedOnField A5}
  0.192619453924915,                      !- Output Value 7 {BasedOnField A5}
  0.199488054607509,                      !- Output Value 8 {BasedOnField A5}
  0.202474402730375,                      !- Output Value 9 {BasedOnField A5}
  0.208148464163822,                      !- Output Value 10 {BasedOnField A5}
  0.212030716723549,                      !- Output Value 11 {BasedOnField A5}
  0.232337883959044,                      !- Output Value 12 {BasedOnField A5}
  0.247568259385665,                      !- Output Value 13 {BasedOnField A5}
  0.278327645051195,                      !- Output Value 14 {BasedOnField A5}
  0.295947098976109,                      !- Output Value 15 {BasedOnField A5}
  0.318941979522184,                      !- Output Value 16 {BasedOnField A5}
  0.363438566552901,                      !- Output Value 17 {BasedOnField A5}
  0.412414675767918,                      !- Output Value 18 {BasedOnField A5}
  0.441382252559727,                      !- Output Value 19 {BasedOnField A5}
  0.468558020477816,                      !- Output Value 20 {BasedOnField A5}
  0.506484641638225,                      !- Output Value 21 {BasedOnField A5}
  0.203967576791809,                      !- Output Value 22 {BasedOnField A5}
  0.209641638225256,                      !- Output Value 23 {BasedOnField A5}
  0.21561433447099,                       !- Output Value 24 {BasedOnField A5}
  0.221288395904437,                      !- Output Value 25 {BasedOnField A5}
  0.223976109215017,                      !- Output Value 26 {BasedOnField A5}
  0.227261092150171,                      !- Output Value 27 {BasedOnField A5}
  0.231143344709898,                      !- Output Value 28 {BasedOnField A5}
  0.238907849829352,                      !- Output Value 29 {BasedOnField A5}
  0.243686006825939,                      !- Output Value 30 {BasedOnField A5}
  0.250554607508532,                      !- Output Value 31 {BasedOnField A5}
  0.255332764505119,                      !- Output Value 32 {BasedOnField A5}
  0.289974402730375,                      !- Output Value 33 {BasedOnField A5}
  0.308191126279863,                      !- Output Value 34 {BasedOnField A5}
  0.349701365187713,                      !- Output Value 35 {BasedOnField A5}
  0.370008532423208,                      !- Output Value 36 {BasedOnField A5}
  0.398976109215017,                      !- Output Value 37 {BasedOnField A5}
  0.456612627986348,                      !- Output Value 38 {BasedOnField A5}
  0.520221843003413,                      !- Output Value 39 {BasedOnField A5}
  0.556058020477816,                      !- Output Value 40 {BasedOnField A5}
  0.590998293515358,                      !- Output Value 41 {BasedOnField A5}
  0.557252559726962,                      !- Output Value 42 {BasedOnField A5}
  0.238609215017065,                      !- Output Value 43 {BasedOnField A5}
  0.246075085324232,                      !- Output Value 44 {BasedOnField A5}
  0.253242320819113,                      !- Output Value 45 {BasedOnField A5}